Version 4
SHEET 1 1240 1000
WIRE -48 -16 -144 -16
WIRE 16 -16 -48 -16
WIRE 112 -16 16 -16
WIRE 368 -16 240 -16
WIRE -144 0 -144 -16
WIRE -48 0 -48 -16
WIRE 368 0 368 -16
WIRE 112 16 112 -16
WIRE 240 16 240 -16
WIRE -48 80 -48 64
WIRE 16 80 16 -16
WIRE 32 80 16 80
WIRE 368 80 368 64
WIRE 368 80 320 80
WIRE 432 80 368 80
WIRE 544 80 512 80
WIRE -144 96 -144 80
WIRE 368 96 368 80
WIRE 32 144 -240 144
WIRE 336 144 320 144
WIRE 544 144 544 80
WIRE 560 144 544 144
WIRE 656 144 624 144
WIRE 656 160 656 144
WIRE 368 176 368 160
WIRE 32 208 -96 208
WIRE 336 208 336 144
WIRE 336 208 320 208
WIRE 544 208 544 144
WIRE 544 208 336 208
WIRE -240 224 -336 224
WIRE -96 224 -96 208
WIRE -96 224 -240 224
WIRE -336 240 -336 224
WIRE -64 272 -96 272
WIRE 32 272 16 272
WIRE 336 272 320 272
WIRE 512 272 336 272
WIRE 528 272 512 272
WIRE 624 272 608 272
WIRE 624 288 624 272
WIRE -240 320 -240 304
WIRE -128 336 -176 336
WIRE -16 336 -48 336
WIRE 32 336 -16 336
WIRE 400 336 320 336
WIRE 576 336 400 336
WIRE -176 352 -176 336
WIRE -16 352 -16 336
WIRE 400 368 400 336
WIRE 576 368 576 336
WIRE 176 384 176 368
WIRE -384 400 -464 400
WIRE -176 432 -176 416
WIRE -16 432 -16 416
WIRE 400 464 400 432
WIRE 576 464 576 432
WIRE 336 480 336 272
WIRE 512 480 512 272
WIRE 336 544 272 544
WIRE 352 544 336 544
WIRE 512 544 464 544
WIRE 528 544 512 544
WIRE 272 560 272 544
WIRE 464 576 464 544
FLAG -144 96 0
FLAG 656 160 0
FLAG 176 384 0
FLAG -16 432 0
FLAG -96 272 0
FLAG 368 176 0
FLAG -48 80 0
FLAG -144 -16 IN
FLAG 544 80 OUT
FLAG -176 432 0
FLAG -240 320 0
FLAG -336 416 0
FLAG -464 480 0
FLAG 272 640 0
FLAG 464 656 0
FLAG 400 560 0
FLAG 576 560 0
FLAG 624 288 0
SYMBOL voltage -144 -16 R0
WINDOW 0 26 19 Left 2
WINDOW 3 24 99 Left 2
SYMATTR InstName V1
SYMATTR Value 12
SYMBOL ind 416 96 R270
WINDOW 0 32 56 VTop 2
WINDOW 3 5 56 VBottom 2
SYMATTR InstName L1
SYMATTR Value 10µ
SYMATTR SpiceLine Rser=.060
SYMBOL cap 352 0 R0
SYMATTR InstName C1
SYMATTR Value .22µ
SYMBOL PowerProducts\\LT3474 176 192 R0
SYMATTR InstName U1
SYMBOL cap -32 352 R0
SYMATTR InstName C2
SYMATTR Value 3300p
SYMBOL res 32 256 R90
WINDOW 0 0 56 VBottom 2
WINDOW 3 32 56 VTop 2
SYMATTR InstName R1
SYMATTR Value 52.3K
SYMBOL schottky 352 160 M180
WINDOW 0 37 59 Left 2
WINDOW 3 24 0 Left 2
SYMATTR InstName D1
SYMATTR Value 1N5819
SYMATTR Description Diode
SYMATTR Type diode
SYMBOL cap 624 128 R90
WINDOW 0 0 32 VBottom 2
WINDOW 3 32 32 VTop 2
SYMATTR InstName C3
SYMATTR Value 2.2µ
SYMATTR SpiceLine Rser=.025
SYMBOL LED 384 368 R0
WINDOW 3 28 65 Left 2
SYMATTR Value LXHL-LW3C
SYMATTR InstName D2
SYMATTR Description Diode
SYMATTR Type diode
SYMBOL cap -64 0 R0
SYMATTR InstName C4
SYMATTR Value 2.2µ
SYMATTR SpiceLine Rser=.025
SYMBOL cap -192 352 R0
SYMATTR InstName C5
SYMATTR Value 0.1µ
SYMBOL res -32 320 R90
WINDOW 0 0 56 VBottom 2
WINDOW 3 32 56 VTop 2
SYMATTR InstName R2
SYMATTR Value 10K
SYMBOL res -256 128 R0
SYMATTR InstName R3
SYMATTR Value 100k
SYMBOL res -256 208 R0
SYMATTR InstName R4
SYMATTR Value 200k
SYMBOL nmos -384 320 R0
SYMATTR InstName M1
SYMBOL res -352 224 R0
SYMATTR InstName R5
SYMATTR Value 1
SYMBOL voltage -464 384 R0
WINDOW 123 0 0 Left 2
WINDOW 39 0 0 Left 2
SYMATTR InstName V2
SYMATTR Value PULSE(5 0 2.1ms)
SYMBOL LED 560 368 R0
SYMATTR InstName D3
SYMATTR Value QTLP690C
SYMBOL nmos 352 464 R0
SYMATTR InstName M2
SYMATTR Value BSC010NE2LS
SYMBOL nmos 528 464 R0
SYMATTR InstName M3
SYMATTR Value BSC010NE2LS
SYMBOL schottky 528 544 R180
WINDOW 0 24 64 Left 2
WINDOW 3 24 0 Left 2
SYMATTR InstName D5
SYMATTR Value BAT54
SYMATTR Description Diode
SYMATTR Type diode
SYMBOL voltage 272 544 R0
WINDOW 123 0 0 Left 2
WINDOW 39 0 0 Left 2
SYMATTR InstName V3
SYMATTR Value PULSE(0 5 2.5ms 0 0 10u 20u)
SYMBOL voltage 464 560 R0
WINDOW 123 0 0 Left 2
WINDOW 39 0 0 Left 2
SYMATTR InstName V4
SYMATTR Value PULSE(0 5 0 0 0 10u 20u 100)
SYMBOL schottky 352 544 R180
WINDOW 0 24 64 Left 2
WINDOW 3 24 0 Left 2
SYMATTR InstName D4
SYMATTR Value BAT54
SYMATTR Description Diode
SYMATTR Type diode
SYMBOL res 624 256 R90
WINDOW 0 0 56 VBottom 2
WINDOW 3 32 56 VTop 2
SYMATTR InstName R6
SYMATTR Value 1k
TEXT 856 688 Left 2 !.tran 5m startup
TEXT -272 696 Left 2 !.model LXHL-LW3C D(Is=3.5e-17 Rs=0.725 N=3.12 Cjo=1.2n Iave=1.5 mfg=Lumileds type=LED)
TEXT 192 -32 Bottom 2 ;LT3474 - 1A, Wide Input Range Step-Down LED Driver DC/DC Converter\nInput: 12V       Output: 1A through single 3.6V LED
TEXT -440 776 Left 2 ;Note:\n  If the simulation model is not found please update with the "Sync Release" command from the "Tools" menu.\n  It remains the customer's responsibility to verify proper and reliable operation in the actual application.\n  Component substitution and printed circuit board layout may significantly affect circuit performance or reliability\n  Contact your local sales representative for assistance. This circuit is distributed to customers only for use with LTC parts\n  Copyright © 2006 Linear Technology Inc. All rights reserved.
TEXT 224 416 Left 2 ;Big LED
TEXT 664 384 Left 2 ;DLR
TEXT -456 984 Left 2 ;This Linear Technology Example has been modified to simulate using two LEDs with different current ratings.
